*Heading
** Job name: DCB_CS_el2p54 Model name: Model-1
** Generated by: Abaqus/CAE 2021
*Preprint, echo=NO, model=NO, history=NO, contact=NO
**
** PARTS
**
*Part, name=_VCCT_DCB
*Node
      1,   30.3999996,           0.,   2.25099993
      2,   30.3999996,   25.3999996,   2.25099993
      3,   106.599998,   25.3999996,   2.25099993
      4,   106.599998,           0.,   2.25099993
      5,   30.3999996,   25.3999996,          4.5
      6,   106.599998,   25.3999996,          4.5
      7,   106.599998,           0.,          4.5
      8,   30.3999996,           0.,          4.5
      9,           0.,   25.3999996,   2.25099993
     10,           5.,   25.3999996,   2.25099993
     11,           5.,           0.,   2.25099993
     12,           0.,           0.,   2.25099993
     13,           5.,   25.3999996,          4.5
     14,           5.,           0.,          4.5
     15,           0.,           0.,          4.5
     16,           0.,   25.3999996,          4.5
     17,   30.3999996,   25.3999996,   2.24900007
     18,   106.599998,   25.3999996,   2.24900007
     19,   106.599998,           0.,   2.24900007
     20,   30.3999996,           0.,   2.24900007
** ... 1872 like lines cut
*Element, type=C3D8I
  1,   33,    1,  108,  489,  117,    8,  156,  750
  2,   34,   33,  489,  490,  116,  117,  750,  751
  3,   35,   34,  490,  491,  115,  116,  751,  752
  4,   36,   35,  491,  492,  114,  115,  752,  753
  5,   37,   36,  492,  493,  113,  114,  753,  754
  6,   38,   37,  493,  494,  112,  113,  754,  755
  7,   39,   38,  494,  495,  111,  112,  755,  756
  8,   40,   39,  495,  496,  110,  111,  756,  757
  9,   41,   40,  496,  497,  109,  110,  757,  758
 10,    2,   41,  497,   42,    5,  109,  758,  146
 11,  489,  108,  107,  498,  750,  156,  157,  759
 12,  490,  489,  498,  499,  751,  750,  759,  760
 13,  491,  490,  499,  500,  752,  751,  760,  761
 14,  492,  491,  500,  501,  753,  752,  761,  762
 15,  493,  492,  501,  502,  754,  753,  762,  763
 16,  494,  493,  502,  503,  755,  754,  763,  764
 17,  495,  494,  503,  504,  756,  755,  764,  765
 18,  496,  495,  504,  505,  757,  756,  765,  766
 19,  497,  496,  505,  506,  758,  757,  766,  767
 20,   42,  497,  506,   43,  146,  758,  767,  145
** ... 820 like lines cut
**
*USER ELEMENT, TYPE=U308, NODES=8,COORDINATES=3,PROPERTIES=20,VARIABLES=22
1,2,3
*Element,type=U308,elset=PRXVCCT_I
321,  233,   20,  272, 1029,   33,    1,  108,  489
322,  232,  233, 1029, 1030,   34,   33,  489,  490
323,  231,  232, 1030, 1031,   35,   34,  490,  491
324,  230,  231, 1031, 1032,   36,   35,  491,  492
325,  229,  230, 1032, 1033,   37,   36,  492,  493
326,  228,  229, 1033, 1034,   38,   37,  493,  494
327,  227,  228, 1034, 1035,   39,   38,  494,  495
328,  226,  227, 1035, 1036,   40,   39,  495,  496
329,  225,  226, 1036, 1037,   41,   40,  496,  497
330,   17,  225, 1037,  262,    2,   41,  497,   42
331, 1029,  272,  273, 1038,  489,  108,  107,  498
332, 1030, 1029, 1038, 1039,  490,  489,  498,  499
333, 1031, 1030, 1039, 1040,  491,  490,  499,  500
334, 1032, 1031, 1040, 1041,  492,  491,  500,  501
335, 1033, 1032, 1041, 1042,  493,  492,  501,  502
336, 1034, 1033, 1042, 1043,  494,  493,  502,  503
337, 1035, 1034, 1043, 1044,  495,  494,  503,  504
338, 1036, 1035, 1044, 1045,  496,  495,  504,  505
339, 1037, 1036, 1045, 1046,  497,  496,  505,  506
340,  262, 1037, 1046,  261,   42,  497,  506,   43
** ... 400 like lines cut
*Nset, nset=all, generate
    1,  1892,     1
*Elset, elset=all, generate
    1,  1260,     1
*Nset, nset=cze_1213
    1,    2,    3,    4,    9,   10,   11,   12,   17,   18,   19,   20,   21,   22,   23,   24
   33,   34,   35,   36,   37,   38,   39,   40,   41,   42,   43,   44,   45,   46,   47,   48
   49,   50,   51,   52,   53,   54,   55,   56,   57,   58,   59,   60,   61,   62,   63,   64
   65,   66,   67,   68,   69,   70,   71,   72,   73,   74,   75,   76,   77,   78,   79,   80
   81,   82,   83,   84,   85,   86,   87,   88,   89,   90,   91,   92,   93,   94,   95,   96
   97,   98,   99,  100,  101,  102,  103,  104,  105,  106,  107,  108,  185,  186,  187,  188
  189,  190,  191,  192,  193,  194,  195,  196,  197,  198,  199,  200,  201,  202,  203,  204
  225,  226,  227,  228,  229,  230,  231,  232,  233,  234,  235,  236,  237,  238,  239,  240
  241,  242,  243,  244,  245,  246,  247,  248,  249,  250,  251,  252,  253,  254,  255,  256
  257,  258,  259,  260,  261,  262,  263,  264,  265,  266,  267,  268,  269,  270,  271,  272
  273,  274,  275,  276,  277,  278,  279,  280,  281,  282,  283,  284,  285,  286,  287,  288
  289,  290,  291,  292,  293,  294,  295,  296,  297,  298,  299,  300,  301,  302,  303,  304
  305,  306,  307,  308,  309,  310,  311,  312,  313,  314,  315,  316,  317,  318,  319,  320
  321,  322,  323,  324,  325,  326,  327,  328,  329,  330,  331,  332,  333,  334,  335,  336
  337,  338,  339,  340,  341,  342,  343,  344,  345,  346,  347,  348,  349,  350,  351,  352
  353,  354,  355,  356,  489,  490,  491,  492,  493,  494,  495,  496,  497,  498,  499,  500
  501,  502,  503,  504,  505,  506,  507,  508,  509,  510,  511,  512,  513,  514,  515,  516
  517,  518,  519,  520,  521,  522,  523,  524,  525,  526,  527,  528,  529,  530,  531,  532
  533,  534,  535,  536,  537,  538,  539,  540,  541,  542,  543,  544,  545,  546,  547,  548
  549,  550,  551,  552,  553,  554,  555,  556,  557,  558,  559,  560,  561,  562,  563,  564
** ... 40 like lines cut
*Elset, elset=cze_1213, generate
 321,  740,    1
*Nset, nset=sublam_plies_1_12
   17,   18,   19,   20,   21,   22,   23,   24,   25,   26,   27,   28,   29,   30,   31,   32
  225,  226,  227,  228,  229,  230,  231,  232,  233,  234,  235,  236,  237,  238,  239,  240
  241,  242,  243,  244,  245,  246,  247,  248,  249,  250,  251,  252,  253,  254,  255,  256
  257,  258,  259,  260,  261,  262,  263,  264,  265,  266,  267,  268,  269,  270,  271,  272
  273,  274,  275,  276,  277,  278,  279,  280,  281,  282,  283,  284,  285,  286,  287,  288
  289,  290,  291,  292,  293,  294,  295,  296,  297,  298,  299,  300,  301,  302,  303,  304
  305,  306,  307,  308,  309,  310,  311,  312,  313,  314,  315,  316,  317,  318,  319,  320
  330,  331,  332,  333,  334,  335,  336,  337,  338,  348,  349,  350,  351,  352,  353,  354
  355,  356,  357,  358,  359,  360,  361,  362,  363,  364,  365,  366,  367,  368,  369,  370
  371,  372,  373,  374,  375,  376,  377,  378,  379,  380,  381,  382,  383,  384,  385,  386
  387,  388,  389,  390,  391,  392,  393,  394,  395,  396,  397,  398,  399,  400,  401,  402
  403,  422,  423,  424,  425,  426,  427,  428,  429,  430,  431,  432,  433,  434,  435,  436
  437,  438,  439,  440,  441,  442,  443,  444,  445,  446,  447,  448,  449,  450,  451,  452
  453,  454,  455,  456,  457,  458,  459,  460,  461,  462,  463,  464,  465,  466,  467,  468
  469,  470,  471,  472,  473,  474,  475,  476,  477,  478,  479,  480,  481,  482,  483,  484
  485,  486,  487,  488, 1029, 1030, 1031, 1032, 1033, 1034, 1035, 1036, 1037, 1038, 1039, 1040
 1041, 1042, 1043, 1044, 1045, 1046, 1047, 1048, 1049, 1050, 1051, 1052, 1053, 1054, 1055, 1056
 1057, 1058, 1059, 1060, 1061, 1062, 1063, 1064, 1065, 1066, 1067, 1068, 1069, 1070, 1071, 1072
 1073, 1074, 1075, 1076, 1077, 1078, 1079, 1080, 1081, 1082, 1083, 1084, 1085, 1086, 1087, 1088
 1089, 1090, 1091, 1092, 1093, 1094, 1095, 1096, 1097, 1098, 1099, 1100, 1101, 1102, 1103, 1104
** ... 40 like lines cut
*Elset, elset=sublam_plies_1_12
  741,  742,  743,  744,  745,  746,  747,  748,  749,  750,  751,  752,  753,  754,  755,  756
  757,  758,  759,  760,  761,  762,  763,  764,  765,  766,  767,  768,  769,  770,  771,  772
  773,  774,  775,  776,  777,  778,  779,  780,  781,  782,  783,  784,  785,  786,  787,  788
  789,  790,  791,  792,  793,  794,  795,  796,  797,  798,  799,  800,  801,  802,  803,  804
  805,  806,  807,  808,  809,  810,  811,  812,  813,  814,  815,  816,  817,  818,  819,  820
  821,  822,  823,  824,  825,  826,  827,  828,  829,  830,  831,  832,  833,  834,  835,  836
  837,  838,  839,  840,  841,  842,  843,  844,  845,  846,  847,  848,  849,  850,  851,  852
  853,  854,  855,  856,  857,  858,  859,  860,  961,  962,  963,  964,  965,  966,  967,  968
  969,  970,  971,  972,  973,  974,  975,  976,  977,  978,  979,  980,  981,  982,  983,  984
  985,  986,  987,  988,  989,  990,  991,  992,  993,  994,  995,  996,  997,  998,  999, 1000
 1001, 1002, 1003, 1004, 1005, 1006, 1007, 1008, 1009, 1010, 1011, 1012, 1013, 1014, 1015, 1016
 1017, 1018, 1019, 1020, 1021, 1022, 1023, 1024, 1025, 1026, 1027, 1028, 1029, 1030, 1031, 1032
 1033, 1034, 1035, 1036, 1037, 1038, 1039, 1040, 1041, 1042, 1043, 1044, 1045, 1046, 1047, 1048
 1049, 1050, 1051, 1052, 1053, 1054, 1055, 1056, 1057, 1058, 1059, 1060, 1061, 1062, 1063, 1064
 1065, 1066, 1067, 1068, 1069, 1070, 1071, 1072, 1073, 1074, 1075, 1076, 1077, 1078, 1079, 1080
 1081, 1082, 1083, 1084, 1085, 1086, 1087, 1088, 1089, 1090, 1091, 1092, 1093, 1094, 1095, 1096
 1097, 1098, 1099, 1100, 1101, 1102, 1103, 1104, 1105, 1106, 1107, 1108, 1109, 1110, 1111, 1112
 1113, 1114, 1115, 1116, 1117, 1118, 1119, 1120, 1121, 1122, 1123, 1124, 1125, 1126, 1127, 1128
 1129, 1130, 1131, 1132, 1133, 1134, 1135, 1136, 1137, 1138, 1139, 1140, 1141, 1142, 1143, 1144
 1145, 1146, 1147, 1148, 1149, 1150, 1151, 1152, 1153, 1154, 1155, 1156, 1157, 1158, 1159, 1160
** ... 7 like lines cut
*Nset, nset=sublam_plies_13_24
    1,    2,    3,    4,    5,    6,    7,    8,    9,   10,   11,   12,   13,   14,   15,   16
   33,   34,   35,   36,   37,   38,   39,   40,   41,   42,   43,   44,   45,   46,   47,   48
   49,   50,   51,   52,   53,   54,   55,   56,   57,   58,   59,   60,   61,   62,   63,   64
   65,   66,   67,   68,   69,   70,   71,   72,   73,   74,   75,   76,   77,   78,   79,   80
   81,   82,   83,   84,   85,   86,   87,   88,   89,   90,   91,   92,   93,   94,   95,   96
   97,   98,   99,  100,  101,  102,  103,  104,  105,  106,  107,  108,  109,  110,  111,  112
  113,  114,  115,  116,  117,  118,  119,  120,  121,  122,  123,  124,  125,  126,  127,  128
  129,  130,  131,  132,  133,  134,  135,  136,  137,  138,  139,  140,  141,  142,  143,  144
  145,  146,  147,  148,  149,  150,  151,  152,  153,  154,  155,  156,  157,  158,  159,  160
  161,  162,  163,  164,  165,  166,  167,  168,  169,  170,  171,  172,  173,  174,  175,  176
  177,  178,  179,  180,  181,  182,  183,  184,  185,  186,  187,  188,  189,  190,  191,  192
  193,  194,  195,  196,  197,  198,  199,  200,  201,  202,  203,  204,  205,  206,  207,  208
  209,  210,  211,  212,  213,  214,  215,  216,  217,  218,  219,  220,  221,  222,  223,  224
  321,  322,  323,  324,  325,  326,  327,  328,  329,  339,  340,  341,  342,  343,  344,  345
  346,  347,  404,  405,  406,  407,  408,  409,  410,  411,  412,  413,  414,  415,  416,  417
  418,  419,  420,  421,  489,  490,  491,  492,  493,  494,  495,  496,  497,  498,  499,  500
  501,  502,  503,  504,  505,  506,  507,  508,  509,  510,  511,  512,  513,  514,  515,  516
  517,  518,  519,  520,  521,  522,  523,  524,  525,  526,  527,  528,  529,  530,  531,  532
  533,  534,  535,  536,  537,  538,  539,  540,  541,  542,  543,  544,  545,  546,  547,  548
  549,  550,  551,  552,  553,  554,  555,  556,  557,  558,  559,  560,  561,  562,  563,  564
** ... 40 like lines cut
*Elset, elset=sublam_plies_13_24
   1,   2,   3,   4,   5,   6,   7,   8,   9,  10,  11,  12,  13,  14,  15,  16
  17,  18,  19,  20,  21,  22,  23,  24,  25,  26,  27,  28,  29,  30,  31,  32
  33,  34,  35,  36,  37,  38,  39,  40,  41,  42,  43,  44,  45,  46,  47,  48
  49,  50,  51,  52,  53,  54,  55,  56,  57,  58,  59,  60,  61,  62,  63,  64
  65,  66,  67,  68,  69,  70,  71,  72,  73,  74,  75,  76,  77,  78,  79,  80
  81,  82,  83,  84,  85,  86,  87,  88,  89,  90,  91,  92,  93,  94,  95,  96
  97,  98,  99, 100, 101, 102, 103, 104, 105, 106, 107, 108, 109, 110, 111, 112
 113, 114, 115, 116, 117, 118, 119, 120, 121, 122, 123, 124, 125, 126, 127, 128
 129, 130, 131, 132, 133, 134, 135, 136, 137, 138, 139, 140, 141, 142, 143, 144
 145, 146, 147, 148, 149, 150, 151, 152, 153, 154, 155, 156, 157, 158, 159, 160
 161, 162, 163, 164, 165, 166, 167, 168, 169, 170, 171, 172, 173, 174, 175, 176
 177, 178, 179, 180, 181, 182, 183, 184, 185, 186, 187, 188, 189, 190, 191, 192
 193, 194, 195, 196, 197, 198, 199, 200, 201, 202, 203, 204, 205, 206, 207, 208
 209, 210, 211, 212, 213, 214, 215, 216, 217, 218, 219, 220, 221, 222, 223, 224
 225, 226, 227, 228, 229, 230, 231, 232, 233, 234, 235, 236, 237, 238, 239, 240
 241, 242, 243, 244, 245, 246, 247, 248, 249, 250, 251, 252, 253, 254, 255, 256
 257, 258, 259, 260, 261, 262, 263, 264, 265, 266, 267, 268, 269, 270, 271, 272
 273, 274, 275, 276, 277, 278, 279, 280, 281, 282, 283, 284, 285, 286, 287, 288
 289, 290, 291, 292, 293, 294, 295, 296, 297, 298, 299, 300, 301, 302, 303, 304
 305, 306, 307, 308, 309, 310, 311, 312, 313, 314, 315, 316, 317, 318, 319, 320
** ... 7 like lines cut
*Elset, elset=VCCT_failed_a0
 621, 622, 623, 624, 625, 626, 627, 628, 629, 630, 631, 632, 633, 634, 635, 636
 637, 638, 639, 640, 641, 642, 643, 644, 645, 646, 647, 648, 649, 651, 652, 653
 654, 655, 656, 657, 658, 659, 661, 662, 663, 664, 665, 666, 667, 668, 669, 671
 672, 673, 674, 675, 676, 677, 678, 679, 681, 682, 683, 684, 685, 686, 687, 688
 689, 691, 692, 693, 694, 695, 696, 697, 698, 699, 701, 702, 703, 704, 705, 706
 707, 708, 709, 711, 712, 713, 714, 715, 716, 717, 718, 719, 721, 722, 723, 724
 725, 726, 727, 728, 729, 731, 732, 733, 734, 735, 736, 737, 738, 739
*Elset, elset=VCCT_pristine
 321, 322, 323, 324, 325, 326, 327, 328, 329, 330, 331, 332, 333, 334, 335, 336
 337, 338, 339, 340, 341, 342, 343, 344, 345, 346, 347, 348, 349, 350, 351, 352
 353, 354, 355, 356, 357, 358, 359, 360, 361, 362, 363, 364, 365, 366, 367, 368
 369, 370, 371, 372, 373, 374, 375, 376, 377, 378, 379, 380, 381, 382, 383, 384
 385, 386, 387, 388, 389, 390, 391, 392, 393, 394, 395, 396, 397, 398, 399, 400
 401, 402, 403, 404, 405, 406, 407, 408, 409, 410, 411, 412, 413, 414, 415, 416
 417, 418, 419, 420, 421, 422, 423, 424, 425, 426, 427, 428, 429, 430, 431, 432
 433, 434, 435, 436, 437, 438, 439, 440, 441, 442, 443, 444, 445, 446, 447, 448
 449, 450, 451, 452, 453, 454, 455, 456, 457, 458, 459, 460, 461, 462, 463, 464
 465, 466, 467, 468, 469, 470, 471, 472, 473, 474, 475, 476, 477, 478, 479, 480
 481, 482, 483, 484, 485, 486, 487, 488, 489, 490, 491, 492, 493, 494, 495, 496
 497, 498, 499, 500, 501, 502, 503, 504, 505, 506, 507, 508, 509, 510, 511, 512
 513, 514, 515, 516, 517, 518, 519, 520, 521, 522, 523, 524, 525, 526, 527, 528
 529, 530, 531, 532, 533, 534, 535, 536, 537, 538, 539, 540, 541, 542, 543, 544
 545, 546, 547, 548, 549, 550, 551, 552, 553, 554, 555, 556, 557, 558, 559, 560
 561, 562, 563, 564, 565, 566, 567, 568, 569, 570, 571, 572, 573, 574, 575, 576
 577, 578, 579, 580, 581, 582, 583, 584, 585, 586, 587, 588, 589, 590, 591, 592
 593, 594, 595, 596, 597, 598, 599, 600, 601, 602, 603, 604, 605, 606, 607, 608
 609, 610, 611, 612, 613, 614, 615, 616, 617, 618, 619, 620, 650, 660, 670, 680
 690, 700, 710, 720, 730, 740
*Orientation, name=Ori-1
1., 0., 0., 0., 1., 0.
3, 0.
** Section: SC_13_24
*Solid Section, elset=sublam_plies_13_24, composite, orientation=Ori-1
1., 5, IM7-8552, 0., pname
** Section: Comp_solid
*Solid Section, elset=sublam_plies_1_12, composite, orientation=Ori-1
1., 5, IM7-8552, 0., pname
**
*parameter
Y_N_I = 1000.0
s_n_I = 8.0
Y_S_I = 1000.0
s_s_I = 8.0
GIC_IB = 0.212
GIIC_IB = 0.774
eta_IB = 2.1
GIR_IB = 0.0
GIIR_IB = 0.0
etaR_IB = 0.0
GIC_IT = 0.212
GIIC_IT = 0.774
eta_IT = 2.1
GIR_IT =0.0
GIIR_IT = 0.0
etaR_IT = 0.0
dadn_IT = 1
dadn_IB = 1
dadn_IT_F = 1
dadn_IB_F = 1
r_curve_IT = 1
r_curve_IB = 1
r_curve_IT_F = 1
r_curve_IB_F = 1
r_curve_1 = 1
dstat_pristine = 0.0
dstat_failed = 1.0
ORI_IT = 0.0
ORI_IB = 0.0
fg_x = 1.0
fg_y = 0.0
fg_z = 0.0
**
*UEL PROPERTY, ELSET=VCCT_pristine
<dstat_pristine>,<ORI_IT>,<ORI_IB>,<fg_x>,<fg_y>,<fg_z>,<Y_N_I>,<s_n_I>,
<Y_S_I>,<s_s_I>,<GIC_IB>,<GIIC_IB>,<eta_IB>,<GIC_IT>,<GIIC_IT>,<eta_IT>,
<dadn_IB>,<r_curve_IB>,<dadn_IT>,<r_curve_IT>
**
*UEL PROPERTY, ELSET=VCCT_failed_a0
<dstat_failed>,<ORI_IT>,<ORI_IB>,<fg_x>,<fg_y>,<fg_z>,<Y_N_I>,<s_n_I>,
<Y_S_I>,<s_n_I>,<GIC_IB>,<GIIC_IB>,<eta_IB>,<GIC_IT>,<GIIC_IT>,<eta_IT>,
<dadn_IB>,<r_curve_IB>,<dadn_IT>,<r_curve_IT>
**
**VCCT_DADN, DADN = 1
**2.44E6, 10.61,  2.0, 0.0, 0.0, 0.0
**2.44E6, 10.61,  2.0, 0.0, 0.0, 1.0
**
**VCCT_R_CURVE, R_CURVE = 1
**1.0, 0.0, 0.0
**1.0, 0.0, 0.2 
**1.0, 0.0, 0.5
**1.0, 0.0, 0.8
**1.0, 0.0, 1.0
**1.588, 15.24, 0.0 
**1.565, 15.24, 0.2
**1.14, 3.0226, 0.5
**1.23, 5.994,0.8
**1.15,5.994,1.0
**
*End Part
**  
**
** ASSEMBLY
**
*Assembly, name=Assembly
**  
*Instance, name=DCB-1, part=_VCCT_DCB
*End Instance
**  
*Nset, nset=PIN_bot, instance=DCB-1
  25,  28, 357, 358, 359, 360, 361, 362, 363, 364, 365
*Elset, elset=PIN_bot, instance=DCB-1
 741, 742, 743, 744, 745, 746, 747, 748, 749, 750, 851, 852, 853, 854, 855, 856
 857, 858, 859, 860
*Nset, nset=PIN_top, instance=DCB-1
  13,  14, 206, 207, 208, 209, 210, 211, 212, 213, 214
*Elset, elset=PIN_top, instance=DCB-1
 302, 304, 306, 308, 310, 312, 314, 316, 318, 320, 870, 880, 890, 900, 910, 920
 930, 940, 950, 960
*Nset, nset=y0, instance=DCB-1
 14, 25, 32
*End Assembly
** 
** MATERIALS
** 
*Material, name=IM7-8552
*Elastic, type=ENGINEERING CONSTANTS
161000.,11380.,11380.,  0.32,  0.32,  0.45, 5200., 5200.
 3900.,
** 
** BOUNDARY CONDITIONS
** 
** Name: BC_y0 Type: Displacement/Rotation
*Boundary
y0, 2, 2
** ----------------------------------------------------------------
** 
** STEP: Step-1
** 
*Step, name=Step-1, nlgeom=NO, inc=1000
*Static
0.01, 1., 1e-15, 0.01
** 
** BOUNDARY CONDITIONS
** 
** Name: BC_PIN_bot Type: Displacement/Rotation
*Boundary
PIN_bot, 3, 3, -1.2
** Name: BC_PIN_top Type: Displacement/Rotation
*Boundary
PIN_top, 3, 3, 1.2
** 
** OUTPUT REQUESTS
** 
*Output, field, variable=PRESELECT
*Node Output
U
*Element Output, directions=YES
S
** 
** HISTORY OUTPUT: H-Output-1
** 
*Output, history
*Node Output, nset=PIN_top
U1, U2, U3,RF1, RF2, RF3
**
*End Step
